VERS 220529 15323 117710 L117710
MODE SEQ
NAME VEO_JM DIAMOND 5X 405NM
AUTH 
IWDP 0
PFIL 0 0 0
LANG 0
UNIT MM X W X CM MR CPMM
FLOA
ENVD 20 1 1
GFAC 0 0
GCAT SCHOTT 
RAIM 0 2 1 1 0 1 0 0 0 0
PUSH 0 0 0 0 0 0
SDMA 0 1 0
OMMA 1 1
FTYP 3 0 6 4 0 0 0 6
ROPD 2
HYPR 0
PICB 1
XFLN 0 0 0 0 0 0
YFLN 0 33.359999999999999 29.838091091757192 25.840544885895884 21.098716548643427 14.919045545878596
FWGN 1 1 1 1 1 1
VDXN 0 0 0 0 0 0
VDYN 0 0 0 0 0 0
VCXN 0 0 0 0 0 0
VCYN 0 0 0 0 0 0
VANN 0 0 0 0 0 0
FCOM 1 On-axis Field
FCOM 2 Max Field Y
WAVM 1 0.40500000000000003 1
WAVM 2 0.48799999999999999 0
WAVM 3 0.56100000000000005 0
WAVM 4 0.63800000000000001 0
WAVM 5 0.54600000000000004 0
WAVM 6 0.64500000000000002 7
WAVM 7 0.63500000000000001 4
WAVM 8 0.625 16
WAVM 9 0.57499999999999996 24
WAVM 10 0.54000000000000004 14
WAVM 11 0.52500000000000002 8
WAVM 12 0.65627250000000004 0
WAVM 13 0.48613269999999997 0
WAVM 14 0.55000000000000004 1
WAVM 15 0.55000000000000004 1
WAVM 16 0.55000000000000004 1
WAVM 17 0.55000000000000004 1
WAVM 18 0.55000000000000004 1
WAVM 19 0.55000000000000004 1
WAVM 20 0.55000000000000004 1
WAVM 21 0.55000000000000004 1
WAVM 22 0.55000000000000004 1
WAVM 23 0.55000000000000004 1
WAVM 24 0.55000000000000004 1
PWAV 1
POLS 1 0 1 0 0 1 0
GLRS 0 0
GSTD 0 100.000 100.000 100.000 100.000 100.000 100.000 0 1 1 0 0 1 1 1 1 1 1
NSCD 100 500 0 0.001 10 9.9999999999999995e-07 0 0 0 0 0 0 1000000 0 2
COFN QF "COATING.DAT" "SCATTER_PROFILE.DAT" "ABG_DATA.DAT" "PROFILE.GRD"
COFN COATING.DAT SCATTER_PROFILE.DAT ABG_DATA.DAT PROFILE.GRD
LUID 36
EERA 0 0 0 10 10
SURF 0
  SSID 0
  TYPE STANDARD
  FIMP 

  CURV 0.0 0 0 0 0 ""
  HIDE 0 0 0 0 0 0 0 0 0 0
  MIRR 2 0
  SLAB 20
  DISZ 32.5
  DIAM 6.6609983980387968 0 0 0 1 ""
  MEMA 6.6609983980387968 0 0 0 1 ""
  POPS 0 0 0 0 0 0 0 0 1 1 1 1 0 0 0 0
SURF 1
  SSID 1
  COMM BS
  TYPE STANDARD
  FIMP 

  CURV 0.0 0 0 0 0 ""
  HIDE 0 0 0 0 0 0 0 0 0 0
  MIRR 2 0
  SLAB 27
  DISZ 35
  GLAS N-BK7 0 0 1.5 40 0 0 0 0 0 0 
  DIAM 14.395162829977769 0 0 0 1 ""
  MEMA 19.752110962319321 0 0 0 1 ""
  POPS 0 0 0 0 0 0 0 0 1 1 1 1 0 0 0 0
SURF 2
  SSID 2
  TYPE STANDARD
  FIMP 

  CURV 0.0 0 0 0 0 ""
  HIDE 0 0 0 0 0 0 0 0 0 0
  MIRR 2 0
  SLAB 22
  DISZ 7
  DIAM 19.752110962319321 0 0 0 1 ""
  MEMA 19.752110962319321 0 0 0 1 ""
  POPS 0 0 0 0 0 0 0 0 1 1 1 1 0 0 0 0
SURF 3
  SSID 33
  COMM Dummy
  TYPE STANDARD
  FIMP 

  CURV 0.0 0 0 0 0 ""
  HIDE 0 0 0 0 0 0 0 0 0 0
  MIRR 2 0
  SLAB 34
  DISZ 0
  DIAM 21.417930993813869 0 0 0 1 ""
  MEMA 21.417930993813869 0 0 0 1 ""
  POPS 0 0 0 0 0 0 0 0 1 1 1 1 0 0 0 0
SURF 4
  SSID 3
  COMM VEO_JM_Diamond_-5x-BB1.ZBB
  TYPE BLACKBOX
  FIMP 

  CURV 0.0 0 0.0 0.0 0
  HIDE 0 0 0 0 0 0 0 0 0 0
  MIRR 2 0
  SLAB 1
  DISZ 77.310000000000002
  DIAM 29.899999999999999 1 0 0 1 ""
  MEMA 29.899999999999999 0 0 0 1 ""
  POPS 0 1 0 0 0 0 0 0 1 1 1 1 0 0 0 0
  CLAP 0 29.899999999999999 0
SURF 5
  SSID 35
  TYPE STANDARD
  FIMP 

  CURV 0.0 0 0 0 0 ""
  HIDE 0 0 0 0 0 0 0 0 0 0
  MIRR 2 0
  SLAB 36
  DISZ 0
  DIAM 18.999999999608434 0 0 0 1 ""
  MEMA 18.999999999608434 0 0 0 1 ""
  POPS 0 0 0 0 0 0 0 0 1 1 1 1 0 0 0 0
SURF 6
  SSID 15
  STOP
  TYPE STANDARD
  FIMP 

  CURV 0.0 0 0 0 0 ""
  HIDE 0 0 0 0 0 0 0 0 0 0
  MIRR 2 0
  SLAB 7
  DISZ 0
  DIAM 19 1 0 0 1 ""
  MEMA 19 0 0 0 1 ""
  POPS 0 0 0 0 0 0 0 0 1 1 1 1 0 0 0 0
SURF 7
  SSID 36
  TYPE STANDARD
  FIMP 

  CURV 0.0 0 0 0 0 ""
  HIDE 0 0 0 0 0 0 0 0 0 0
  MIRR 2 0
  SLAB 37
  DISZ 0
  DIAM 18.999999999608434 0 0 0 1 ""
  MEMA 18.999999999608434 0 0 0 1 ""
  POPS 0 0 0 0 0 0 0 0 1 1 1 1 0 0 0 0
SURF 8
  SSID 34
  COMM VEO_JM_Diamond_-5x-BB2.ZBB
  TYPE BLACKBOX
  FIMP 

  CURV 0.0 0 0.0 0.0 0
  HIDE 0 0 0 0 0 0 0 0 0 0
  MIRR 2 0
  SLAB 2
  DISZ 103.03749999999998
  DIAM 33.899999999999999 1 0 0 1 ""
  MEMA 33.899999999999999 0 0 0 1 ""
  POPS 0 1 0 0 0 0 0 0 1 1 1 1 0 0 0 0
  CLAP 0 33.899999999999999 0
SURF 9
  SSID 32
  COMM Dummy
  TYPE STANDARD
  FIMP 

  CURV 0.0 0 0 0 0 ""
  HIDE 0 0 0 0 0 0 0 0 0 0
  MIRR 2 0
  SLAB 33
  DISZ 0
  DIAM 32.281040067570537 0 0 0 1 ""
  MEMA 32.281040067570537 0 0 0 1 ""
  POPS 0 0 0 0 0 0 0 0 1 1 1 1 0 0 0 0
SURF 10
  SSID 28
  COMM CG
  TYPE STANDARD
  FIMP 

  CURV 0.0 0 0 0 0 ""
  HIDE 0 0 0 0 0 0 0 0 0 0
  MIRR 2 0
  SLAB 16
  DISZ 0.52500000000000002
  GLAS N-BK7 0 0 0 0 0 0 0 0 0 0 
  DIAM 32.281040067570537 0 0 0 1 ""
  MEMA 32.281894751982442 0 0 0 1 ""
  POPS 0 0 0 0 0 0 0 0 1 1 1 1 0 0 0 0
SURF 11
  SSID 29
  TYPE STANDARD
  FIMP 

  CURV 0.0 0 0 0 0 ""
  HIDE 0 0 0 0 0 0 0 0 0 0
  MIRR 2 0
  SLAB 17
  DISZ 437.07537357051257
  MAZH 0 0
  DIAM 32.281894751982442 0 0 0 1 ""
  MEMA 32.281894751982442 0 0 0 1 ""
  POPS 0 0 0 0 0 0 0 0 1 1 1 1 0 0 0 0
SURF 12
  SSID 30
  TYPE STANDARD
  FIMP 

  CURV 0.0 0 0 0 0 ""
  HIDE 0 0 0 0 0 0 0 0 0 0
  MIRR 2 0
  SLAB 18
  DISZ 0.050000000000000003
  DIAM 33.40578211365397 0 0 0 1 ""
  MEMA 33.40578211365397 0 0 0 1 ""
  POPS 0 0 0 0 0 0 0 0 1 1 1 1 0 0 0 0
SURF 13
  SSID 31
  TYPE STANDARD
  FIMP 

  CURV 0.0 0 0 0 0 ""
  HIDE 0 0 0 0 0 0 0 0 0 0
  MIRR 2 0
  SLAB 19
  DISZ 0
  DIAM 33.41140814281632 0 0 0 1 ""
  MEMA 33.41140814281632 0 0 0 1 ""
  POPS 0 0 0 0 0 0 0 0 1 1 1 1 0 0 0 0
CONF 4 0 0 0 0 0 0 0 0 0
BLNK 
TOL TOFF   0   0 0.0000000000000000E+00 0.0000000000000000E+00   0 0 0 0 0
MNUM 4 1
MOFF   0   1 "405" 0 0 0 1 1 0 0.0 "" 0
MOFF   0   2 "488" 0 0 0 1 1 0 0.0 "" 0
MOFF   0   3 "561" 0 0 0 1 1 0 0.0 "" 0
MOFF   0   4 "638" 0 0 0 1 1 0 0.0 "" 0
LTTL   0   1 "VEO_JM DIAMOND 5X 405NM" 0 0 0 1 1 0 0.0 "" 0
LTTL   0   2 "VEO_JM DIAMOND 5X 488nm" 0 0 0 1 1 0 0.0 "" 0
LTTL   0   3 "VEO_JM DIAMOND 5X 561" 0 0 0 1 1 0 0.0 "" 0
LTTL   0   4 "VEO_JM DIAMOND 5X 638NM" 0 0 0 1 1 0 0.0 "" 0
THIC  12   1 5.000000000000E-02 0 0 0 1 1 1.000000000000E+00 0.000000000000E+00 0 "" 0
THIC  12   2 -3.000000000000E-02 0 0 0 1 1 1.000000000000E+00 0.000000000000E+00 0 "" 0
THIC  12   3 -7.000000000000E-02 0 0 0 1 1 1.000000000000E+00 0.000000000000E+00 0 "" 0
THIC  12   4 -1.100000000000E-01 0 0 0 1 1 1.000000000000E+00 0.000000000000E+00 0 "" 0
PRWV   0   1 1.000000000000E+00 0 0 0 1 1 1.000000000000E+00 0.000000000000E+00 0 "" 0
PRWV   0   2 2.000000000000E+00 0 0 0 1 1 1.000000000000E+00 0.000000000000E+00 0 "" 0
PRWV   0   3 3.000000000000E+00 0 0 0 1 1 1.000000000000E+00 0.000000000000E+00 0 "" 0
PRWV   0   4 4.000000000000E+00 0 0 0 1 1 1.000000000000E+00 0.000000000000E+00 0 "" 0
WLWT   1   1 1.000000000000E+00 0 0 0 1 1 1.000000000000E+00 0.000000000000E+00 0 "" 0
WLWT   1   2 0.000000000000E+00 0 0 0 1 1 1.000000000000E+00 0.000000000000E+00 0 "" 0
WLWT   1   3 0.000000000000E+00 0 0 0 1 1 1.000000000000E+00 0.000000000000E+00 0 "" 0
WLWT   1   4 0.000000000000E+00 0 0 0 1 1 1.000000000000E+00 0.000000000000E+00 0 "" 0
WLWT   2   1 0.000000000000E+00 0 0 0 1 1 1.000000000000E+00 0.000000000000E+00 0 "" 0
WLWT   2   2 1.000000000000E+00 0 0 0 1 1 1.000000000000E+00 0.000000000000E+00 0 "" 0
WLWT   2   3 0.000000000000E+00 0 0 0 1 1 1.000000000000E+00 0.000000000000E+00 0 "" 0
WLWT   2   4 0.000000000000E+00 0 0 0 1 1 1.000000000000E+00 0.000000000000E+00 0 "" 0
WLWT   3   1 0.000000000000E+00 0 0 0 1 1 1.000000000000E+00 0.000000000000E+00 0 "" 0
WLWT   3   2 0.000000000000E+00 0 0 0 1 1 1.000000000000E+00 0.000000000000E+00 0 "" 0
WLWT   3   3 1.000000000000E+00 0 0 0 1 1 1.000000000000E+00 0.000000000000E+00 0 "" 0
WLWT   3   4 0.000000000000E+00 0 0 0 1 1 1.000000000000E+00 0.000000000000E+00 0 "" 0
WLWT   4   1 0.000000000000E+00 0 0 0 1 1 1.000000000000E+00 0.000000000000E+00 0 "" 0
WLWT   4   2 0.000000000000E+00 0 0 0 1 1 1.000000000000E+00 0.000000000000E+00 0 "" 0
WLWT   4   3 0.000000000000E+00 0 0 0 1 1 1.000000000000E+00 0.000000000000E+00 0 "" 0
WLWT   4   4 1.000000000000E+00 0 0 0 1 1 1.000000000000E+00 0.000000000000E+00 0 "" 0
